!KGEN-generated Fortran source file 
  
!Generated at : 2026-04-02 17:33:55 
!KGEN version : 0.8.1 
  
! Copyright 2019 NREL
! Licensed under the Apache License, Version 2.0 (the "License"); you may not use
! this file except in compliance with the License. You may obtain a copy of the
! License at http://www.apache.org/licenses/LICENSE-2.0
! Unless required by applicable law or agreed to in writing, software distributed
! under the License is distributed on an "AS IS" BASIS, WITHOUT WARRANTIES OR
! CONDITIONS OF ANY KIND, either express or implied. See the License for the
! specific language governing permissions and limitations under the License.
! -------------------------------------------------------------------------------------------
! This module contains basic control-related functions
! Functions:
!       AeroDynTorque: Calculate aerodynamic torque
!       ColemanTransform: Perform Colemant transform
!       ColemanTransformInverse: Perform inverse Colemant transform
!       CPFunction: Find Cp using parameterized surface
!       Debug: Debug the controller
!       DFController: DF control
!       identity: Make identity matrix
!       interp1d: 1-d interpolation
!       interp2d: 2-d interpolation
!       matinv3: 3x3 matrix inverse
!       PIDController: implement a PID controller
!       ratelimit: Rate limit signal
!       saturate: Saturate signal


MODULE Functions

    USE constants 
    USE kgen_utils_mod, ONLY: kgen_dp, kgen_array_sumcheck 
    USE tprof_mod, ONLY: tstart, tstop, tnull, tprnt 

    IMPLICIT NONE 

CONTAINS
!-------------------------------------------------------------------------------------------------------------------------------

!-------------------------------------------------------------------------------------------------------------------------------
    


!-------------------------------------------------------------------------------------------------------------------------------


!-------------------------------------------------------------------------------------------------------------------------------


!-------------------------------------------------------------------------------------------------------------------------------


!-------------------------------------------------------------------------------------------------------------------------------


!-------------------------------------------------------------------------------------------------------------------------------


!-------------------------------------------------------------------------------------------------------------------------------


!-------------------------------------------------------------------------------------------------------------------------------


!-------------------------------------------------------------------------------------------------------------------------------

!-------------------------------------------------------------------------------------------------------------------------------

!-------------------------------------------------------------------------------------------------------------------------------


!-------------------------------------------------------------------------------------------------------------------------------


    FUNCTION unwrap(x, ErrVar) result(y)
    ! Unwrap function
    ! If difference between signal elements is < -pi, add 2 pi to reset of signal, and the opposite
    ! Someday, generalize period and check difference is less than period/2
        USE rosco_types, ONLY: errorvariables 
        USE rosco_types, ONLY: kr_rosco_types_errorvariables 
        USE rosco_types, ONLY: kv_rosco_types_errorvariables 
        IMPLICIT NONE
        ! Inputs
    
        TYPE(ErrorVariables), INTENT(INOUT) :: ErrVar
        REAL(DbKi), DIMENSION(:), Intent(IN)  :: x
        ! Output

        REAL(DbKi), DIMENSION(SIZE(x)) :: y
        ! Local
            
        INTEGER(IntKi) :: i

        CHARACTER(*), PARAMETER                 :: RoutineName = 'unwrap'

        y = x ! set initial
        DO i = 2, SIZE(x)
            DO while (y(i) - y(i-1) .LE. -PI)
                y(i:SIZE(x)) = y(i:SIZE(x)) + 2 * PI
            END DO

            DO while (y(i) - y(i-1) .GE. PI)
                y(i:SIZE(x)) = y(i:SIZE(x)) - 2 * PI
            END DO
        END DO
        ! Add RoutineName to error message

        IF (ErrVar%aviFAIL < 0) THEN
            ErrVar%ErrMsg = RoutineName//':'//TRIM(ErrVar%ErrMsg)
        ENDIF
        ! Debug
        ! write(400,*) x
        ! write(401,*) y

        
    END FUNCTION unwrap
!-------------------------------------------------------------------------------------------------------------------------------


END MODULE Functions