!KGEN-generated Fortran source file 
  
!Generated at : 2026-03-28 09:17:03 
!KGEN version : 0.8.1 
  
! ROSCO Registry
! This file is automatically generated by write_registry.py using ROSCO v2.10.1
! For any modification to the registry, please edit the rosco_types.yaml accordingly


 
MODULE ROSCO_Types
    USE constants 
    USE kgen_utils_mod, ONLY: kgen_dp, kgen_array_sumcheck 
    USE tprof_mod, ONLY: tstart, tstop, tnull, tprnt 
    USE kgen_utils_mod, ONLY: check_t, kgen_init_check, kgen_init_verify, kgen_tolerance, kgen_minvalue, kgen_verboselevel, &
    &CHECK_IDENTICAL, CHECK_IN_TOL, CHECK_OUT_TOL 
    IMPLICIT NONE 


TYPE, PUBLIC :: ControlParameters
    INTEGER(IntKi)                :: ZMQ_ID                      ! 0000 - 9999, Identifier of the rosco, used for zeromq interface only
    INTEGER(IntKi)                :: LoggingLevel                ! 0 - write no debug files, 1 - write standard output .dbg-file, 2 - write standard output .dbg-file and complete avrSWAP-array .dbg2-file
    INTEGER(IntKi)                :: Echo                        ! 0 - no Echo, 1 - Echo input data to <RootName>.echo
    INTEGER(IntKi)                :: Ext_Interface               ! 0 - use standard bladed interface, 1 - Use the extened DLL interface introduced in OpenFAST 3.5.0.
    REAL(DbKi)                    :: DT_Out                      ! Output time step
    INTEGER(IntKi)                :: n_DT_Out                    ! output every this many steps
    INTEGER(IntKi)                :: n_DT_ZMQ                    ! Send measurements to ZMQ after this many time steps
    INTEGER(IntKi)                :: F_LPFType                   ! Low pass filter on the rotor and generator speed {1 - first-order low-pass filter, 2 - second-order low-pass filter}, [rad/s]
    REAL(DbKi)                    :: F_LPFCornerFreq             ! Corner frequency (-3dB point) in the first-order low-pass filter, [rad/s]
    REAL(DbKi)                    :: F_LPFDamping                ! Damping coefficient [used only when F_FilterType = 2]
    INTEGER(IntKi)                :: F_NumNotchFilts             ! Number of notch filters
    INTEGER(IntKi)                :: F_GenSpdNotch_N             ! Number of gen speed notch filters
    INTEGER(IntKi), DIMENSION(:), ALLOCATABLE     :: F_GenSpdNotch_Ind           ! Indices of gen speed notch filters
    INTEGER(IntKi)                :: F_TwrTopNotch_N             ! Number of tower top notch filters
    INTEGER(IntKi), DIMENSION(:), ALLOCATABLE     :: F_TwrTopNotch_Ind           ! Indices of tower top notch filters
    REAL(DbKi), DIMENSION(:), ALLOCATABLE     :: F_NotchFreqs                ! Natural frequencies of notch filters, [rad/s]
    REAL(DbKi), DIMENSION(:), ALLOCATABLE     :: F_NotchBetaNum              ! Notch Filter Numerator damping (determines width)
    REAL(DbKi), DIMENSION(:), ALLOCATABLE     :: F_NotchBetaDen              ! Notch Filter Numerator damping (determines depth?)
    REAL(DbKi)                    :: F_SSCornerFreq              ! Corner frequency (-3dB point) in the first order low pass filter for the setpoint smoother [rad/s]
    REAL(DbKi)                    :: F_WECornerFreq              ! Corner frequency (-3dB point) in the first order low pass filter for the wind speed estimate [rad/s]
    REAL(DbKi), DIMENSION(:), ALLOCATABLE     :: F_FlCornerFreq              ! Corner frequency (-3dB point) in the second order low pass filter of the tower-top fore-aft motion for floating feedback control [rad/s].
    REAL(DbKi)                    :: F_FlHighPassFreq            ! Natural frequency of first-roder high-pass filter for nacelle fore-aft motion [rad/s].
    REAL(DbKi)                    :: F_YawErr                    ! Corner low pass filter corner frequency for yaw controller [rad/s].
    REAL(DbKi), DIMENSION(:), ALLOCATABLE     :: F_FlpCornerFreq             ! Corner frequency (-3dB point) in the second order low pass filter of the blade root bending moment for flap control [rad/s].
    REAL(DbKi)                    :: F_VSRefSpdCornerFreq        ! Corner frequency (-3dB point) in the first order low pass filter of the generator speed reference used for TSR tracking torque control [rad/s].
    INTEGER(IntKi)                :: TRA_Mode                    ! Tower Fore-Aft control mode {0 - no fore-aft control, 1 - Tower fore-aft damping, 2 -Frequency exclusion zone, 3- Options 1 and 2}
    REAL(DbKi)                    :: TRA_ExclSpeed               ! Rotor speed for exclusion [LSS] [rad/s]
    REAL(DbKi)                    :: TRA_ExclBand                ! One-half of the total frequency exclusion band. Torque controller reference will be TRA_ExclFreq +/- TRA_ExlBand [rad/s]
    REAL(DbKi)                    :: TRA_RateLimit               ! Time constant for gain change when in exclusion zone [s]
    INTEGER(IntKi)                :: TD_Mode                     ! Tower Fore-Aft control mode {0 - no fore-aft control, 1 - Tower fore-aft damping, 2 -Frequency exclusion zone, 3- Options 1 and 2}
    REAL(DbKi)                    :: FA_HPFCornerFreq            ! Corner frequency (-3dB point) in the high-pass filter on the fore-aft acceleration signal [rad/s]
    REAL(DbKi)                    :: FA_IntSat                   ! Integrator saturation (maximum signal amplitude contrbution to pitch from FA damper), [rad]
    REAL(DbKi)                    :: FA_KI                       ! Integral gain for the fore-aft tower damper controller, -1 = off / >0 = on [rad s/m]
    INTEGER(IntKi)                :: IPC_ControlMode             ! Turn Individual Pitch Control (IPC) for fatigue load reductions (pitch contribution) {0 - off, 1 - 1P reductions, 2 - 1P+2P reductions}
    REAL(DbKi), DIMENSION(:), ALLOCATABLE     :: IPC_Vramp                   ! Wind speeds for IPC cut-in sigma function [m/s]
    REAL(DbKi)                    :: IPC_IntSat                  ! Integrator saturation (maximum signal amplitude contrbution to pitch from IPC)
    INTEGER(IntKi)                :: IPC_SatMode                 ! IPC Saturation method IPC Saturation method (0 - no saturation (except by PC_MinPit), 1 - saturate by PS_BldPitchMin, 2 - saturate sotfly (full IPC cycle) by PC_MinPit, 3 - saturate softly by PS_BldPitchMin)
    REAL(DbKi), DIMENSION(:), ALLOCATABLE     :: IPC_KP                      ! Integral gain for the individual pitch controller, [-].
    REAL(DbKi), DIMENSION(:), ALLOCATABLE     :: IPC_KI                      ! Integral gain for the individual pitch controller, [-].
    REAL(DbKi), DIMENSION(:), ALLOCATABLE     :: IPC_aziOffset               ! Phase offset added to the azimuth angle for the individual pitch controller, [rad].
    REAL(DbKi)                    :: IPC_CornerFreqAct           ! Corner frequency of the first-order actuators model, to induce a phase lag in the IPC signal {0 - Disable}, [rad/s]
    INTEGER(IntKi)                :: PC_ControlMode              ! Blade pitch control mode {0 - No pitch, fix to fine pitch, 1 - active PI blade pitch control}
    INTEGER(IntKi)                :: PC_GS_n                     ! Amount of gain-scheduling table entries
    REAL(DbKi), DIMENSION(:), ALLOCATABLE     :: PC_GS_angles                ! Gain-schedule table - pitch angles
    REAL(DbKi), DIMENSION(:), ALLOCATABLE     :: PC_GS_KP                    ! Gain-schedule table - pitch controller kp gains
    REAL(DbKi), DIMENSION(:), ALLOCATABLE     :: PC_GS_KI                    ! Gain-schedule table - pitch controller ki gains
    REAL(DbKi), DIMENSION(:), ALLOCATABLE     :: PC_GS_KD                    ! Gain-schedule table - pitch controller kd gains
    REAL(DbKi), DIMENSION(:), ALLOCATABLE     :: PC_GS_TF                    ! Gain-schedule table - pitch controller tf gains (derivative filter)
    REAL(DbKi)                    :: PC_MaxPit                   ! Maximum physical pitch limit, [rad].
    REAL(DbKi)                    :: PC_MinPit                   ! Minimum physical pitch limit, [rad].
    REAL(DbKi)                    :: PC_MaxRat                   ! Maximum pitch rate (in absolute value) in pitch controller, [rad/s].
    REAL(DbKi)                    :: PC_MinRat                   ! Minimum pitch rate (in absolute value) in pitch controller, [rad/s].
    REAL(DbKi)                    :: PC_RefSpd                   ! Desired (reference) HSS speed for pitch controller, [rad/s].
    REAL(DbKi)                    :: PC_FinePit                  ! Record 5 - Below-rated pitch angle set-point (deg) [used only with Bladed Interface]
    REAL(DbKi)                    :: PC_Switch                   ! Angle above lowest minimum pitch angle for switch [rad]
    INTEGER(IntKi)                :: VS_ControlMode              ! Generator torque control mode in below rated conditions {0 - no torque control, 1 - komega^2 with PI trans, 2 - WSE TSR Tracking, 3 - Power TSR Tracking, 4 - Torque TSR Tracking}
    INTEGER(IntKi)                :: VS_ConstPower               ! Constant power torque control
    INTEGER(IntKi)                :: VS_FBP                      ! Fixed blade pitch control mode in above rated conditions {0 - variable pitch (defer to PC_ControlMode and VS_ConstPower), 1 - P/omega overspeed control law, 2 - PI reference tracking based on WSE lookup table, 3 - PI reference tracking based on torque lookup table (must have VS_FBP_Tau be a monotonic function)}
    REAL(DbKi)                    :: VS_GenEff                   ! Generator efficiency mechanical power -> electrical power [-]
    REAL(DbKi)                    :: VS_ArSatTq                  ! Above rated generator torque PI control saturation, [Nm]
    REAL(DbKi)                    :: VS_MaxRat                   ! Maximum torque rate (in absolute value) in torque controller, [Nm/s].
    REAL(DbKi)                    :: VS_MaxTq                    ! Maximum generator torque in Region 3 (HSS side), [Nm].
    REAL(DbKi)                    :: VS_MinTq                    ! Minimum generator torque (HSS side), [Nm].
    REAL(DbKi)                    :: VS_MinOMSpd                 ! Optimal mode minimum speed, [rad/s]
    REAL(DbKi)                    :: VS_Rgn2K                    ! Generator torque constant in Region 2 (HSS side), N-m/(rad/s)^2
    REAL(DbKi)                    :: VS_RtPwr                    ! Wind turbine rated power [W]
    REAL(DbKi)                    :: VS_RtTq                     ! Rated torque, [Nm].
    REAL(DbKi)                    :: VS_RefSpd                   ! Rated generator speed [rad/s]
    INTEGER(IntKi)                :: VS_n                        ! Number of controller gains
    REAL(DbKi), DIMENSION(:), ALLOCATABLE     :: VS_KP                       ! Proportional gain for generator PI torque controller, used in the transitional 2.5 region
    REAL(DbKi), DIMENSION(:), ALLOCATABLE     :: VS_KI                       ! Integral gain for generator PI torque controller, used in the transitional 2.5 region
    REAL(DbKi)                    :: VS_TSRopt                   ! Power-maximizing region 2 tip-speed ratio [rad]
    INTEGER(IntKi)                :: VS_FBP_n                    ! Number of operating schedule entries for fixed blade pitch control
    REAL(DbKi), DIMENSION(:), ALLOCATABLE     :: VS_FBP_U                    ! Operating schedule for fixed blade pitch control - Wind speed
    REAL(DbKi), DIMENSION(:), ALLOCATABLE     :: VS_FBP_Omega                ! Operating schedule for fixed blade pitch control - Generator speed
    REAL(DbKi), DIMENSION(:), ALLOCATABLE     :: VS_FBP_Tau                  ! Operating schedule for fixed blade pitch control - Generator torque
    INTEGER(IntKi)                :: SS_Mode                     ! Setpoint Smoother mode {0 - no setpoint smoothing, 1 - introduce setpoint smoothing}
    REAL(DbKi)                    :: SS_VSGain                   ! Variable speed torque controller setpoint smoother gain, [-].
    REAL(DbKi)                    :: SS_PCGain                   ! Collective pitch controller setpoint smoother gain, [-].
    INTEGER(IntKi)                :: PRC_Mode                    ! Power reference tracking mode, 0- use standard rotor speed set points, 1- use PRC rotor speed setpoints
    INTEGER(IntKi)                :: PRC_Comm                    ! Power reference communication mode, 0- use constant DISCON inputs, 1- use open loop inputs, 2- use ZMQ inputs
    REAL(DbKi), DIMENSION(:), ALLOCATABLE     :: PRC_WindSpeeds              ! Array of wind speeds used in rotor speed vs. wind speed lookup table
    REAL(DbKi), DIMENSION(:), ALLOCATABLE     :: PRC_GenSpeeds               ! Array of rotor speeds corresponding to PRC_WindSpeeds
    INTEGER(IntKi)                :: PRC_n                       ! Number of elements in PRC_WindSpeeds and PRC_GenSpeeds array
    REAL(DbKi)                    :: PRC_LPF_Freq                ! Frequency of the low pass filter on the wind speed estimate used to set PRC_GenSpeeds [rad/s]
    REAL(DbKi)                    :: PRC_R_Torque                ! Power rating through changing the rated torque, default is 1, effective above rated [-]
    REAL(DbKi)                    :: PRC_R_Speed                 ! Power rating through changing the rated generator speed, default is 1, effective above rated [-]
    REAL(DbKi)                    :: PRC_R_Pitch                 ! Power rating through changing the fine pitch angle, default is 1, effective below rated [-]
    INTEGER(IntKi)                :: PRC_Table_n                 ! Number of elements in PRC_R to _Pitch table
    REAL(DbKi), DIMENSION(:), ALLOCATABLE     :: PRC_Pitch_Table             ! Table of fine pitch versus PRC_R_Table, length should be PRC_Table_n [rad]
    REAL(DbKi), DIMENSION(:), ALLOCATABLE     :: PRC_R_Table                 ! Table of turbine rating versus fine pitch (PRC_Pitch_Table), length should be PRC_Table_n, default is 1 [-]
    INTEGER(IntKi)                :: WE_Mode                     ! Wind speed estimator mode {0 - One-second low pass filtered hub height wind speed, 1 - Imersion and Invariance Estimator (Ortega et al.)
    REAL(DbKi)                    :: WE_BladeRadius              ! Blade length [m]
    INTEGER(IntKi)                :: WE_CP_n                     ! Amount of parameters in the Cp array
    REAL(DbKi), DIMENSION(:), ALLOCATABLE     :: WE_CP                       ! Parameters that define the parameterized CP(\lambda) function
    REAL(DbKi)                    :: WE_Gamma                    ! Adaption gain of the wind speed estimator algorithm [m/rad]
    REAL(DbKi)                    :: WE_GearboxRatio             ! Gearbox ratio, >=1  [-]
    REAL(DbKi)                    :: WE_Jtot                     ! Total drivetrain inertia, including blades, hub and casted generator inertia to LSS [kg m^2]
    REAL(DbKi)                    :: WE_RhoAir                   ! Air density [kg m^-3]
    CHARACTER(1024)               :: PerfFileName                ! File containing rotor performance tables (Cp,Ct,Cq)
    INTEGER(IntKi), DIMENSION(:), ALLOCATABLE     :: PerfTableSize               ! Size of rotor performance tables, first number refers to number of blade pitch angles, second number referse to number of tip-speed ratios
    INTEGER(IntKi)                :: WE_FOPoles_N                ! Number of first-order system poles used in EKF
    REAL(DbKi), DIMENSION(:), ALLOCATABLE     :: WE_FOPoles_v                ! Wind speeds corresponding to first-order system poles [m/s]
    REAL(DbKi), DIMENSION(:), ALLOCATABLE     :: WE_FOPoles                  ! First order system poles
    INTEGER(IntKi)                :: Y_ControlMode               ! Yaw control mode {0 - no yaw control, 1 - yaw rate control}
    REAL(DbKi)                    :: Y_uSwitch                   ! Wind speed to switch between Y_ErrThresh. If zero, only the first value of Y_ErrThresh is used [m/s]
    REAL(DbKi), DIMENSION(:), ALLOCATABLE     :: Y_ErrThresh                 ! Error threshold [rad]. Turbine begins to yaw when it passes this
    REAL(DbKi)                    :: Y_Rate                      ! Yaw rate [rad/s]
    REAL(DbKi)                    :: Y_MErrSet                   ! Yaw alignment error, setpoint (for wake steering) [rad]
    REAL(DbKi)                    :: Y_IPC_IntSat                ! Integrator saturation (maximum signal amplitude contrbution to pitch from yaw-by-IPC)
    REAL(DbKi)                    :: Y_IPC_KP                    ! Yaw-by-IPC proportional controller gain Kp
    REAL(DbKi)                    :: Y_IPC_KI                    ! Yaw-by-IPC integral controller gain Ki
    INTEGER(IntKi)                :: PS_Mode                     ! Pitch saturation mode {0 - no peak shaving, 1 -  implement pitch saturation}
    INTEGER(IntKi)                :: PS_BldPitchMin_N            ! Number of values in minimum blade pitch lookup table (should equal number of values in PS_WindSpeeds and PS_BldPitchMin)
    REAL(DbKi), DIMENSION(:), ALLOCATABLE     :: PS_WindSpeeds               ! Wind speeds corresponding to minimum blade pitch angles [m/s]
    REAL(DbKi), DIMENSION(:), ALLOCATABLE     :: PS_BldPitchMin              ! Minimum blade pitch angles [rad]
    INTEGER(IntKi)                :: SU_Mode                     ! Startup mode {0 - no startup procedure, 1 - enable startup}
    REAL(DbKi)                    :: SU_StartTime                ! Time to start start up routine
    REAL(DbKi)                    :: SU_FW_MinDuration           ! Free-wheel minimum duration [s]
    REAL(DbKi)                    :: SU_RotorSpeedThresh         ! Rotor speed threshhold to switch from freewheel to loads [rad/s]
    REAL(DbKi)                    :: SU_RotorSpeedCornerFreq     ! Cutoff Frequency for first order low-pass filter for rotor speed for startup, [rad/s]
    INTEGER(IntKi)                :: SU_LoadStages_N             ! Number of load staged for startup (should equal number of values in SU_LoadStages, SU_LoadRampDuration and SU_LoadHoldDuration) [-]
    REAL(DbKi), DIMENSION(:), ALLOCATABLE     :: SU_LoadStages               ! Array containing loads as a fraction of full generator torque during startup [-]
    REAL(DbKi), DIMENSION(:), ALLOCATABLE     :: SU_LoadRampDuration         ! Array containing ramp duration to reach the corresponding partial loads during startup [s]
    REAL(DbKi), DIMENSION(:), ALLOCATABLE     :: SU_LoadHoldDuration         ! Array containing duration to hold the partial loads during startup [s]
    INTEGER(IntKi)                :: SD_Mode                     ! Shutdown mode {0 - no shutdown procedure, 1 - enable shutdown}
    REAL(DbKi)                    :: SD_TimeActivate             ! Time to acitvate shutdown modes, [s]
    INTEGER(IntKi)                :: SD_EnablePitch              ! Shutdown when collective blade pitch exceeds a threshold, [-]
    INTEGER(IntKi)                :: SD_EnableYawError           ! Shutdown when yaw error exceeds a threshold, [-]
    INTEGER(IntKi)                :: SD_EnableGenSpeed           ! Shutdown when generator speed exceeds a threshold, [-]
    INTEGER(IntKi)                :: SD_EnableTime               ! Shutdown at a predefined time, [-]
    REAL(DbKi)                    :: SD_MaxPit                   ! Maximum blade pitch angle to initiate shutdown, [rad]
    REAL(DbKi)                    :: SD_PitchCornerFreq          ! Cutoff Frequency for first order low-pass filter for blade pitch angle for shutdown, [rad/s]
    REAL(DbKi)                    :: SD_MaxYawError              ! Maximum yaw error to initiate shutdown, [deg]
    REAL(DbKi)                    :: SD_YawErrorCornerFreq       ! Cutoff Frequency for first order low-pass filter for yaw error for shutdown, [rad/s]
    REAL(DbKi)                    :: SD_MaxGenSpd                ! Maximum generator speed to initiate shutdown, [rad/s]
    REAL(DbKi)                    :: SD_GenSpdCornerFreq         ! Cutoff Frequency for first order low-pass filter for generator speed for shutdown, [rad/s]
    REAL(DbKi)                    :: SD_Time                     ! Shutdown time, [s]
    INTEGER(IntKi)                :: SD_Method                   ! Shutdown method {1 - Reduce generator torque and increase blade pitch}, [-]
    REAL(DbKi), DIMENSION(:), ALLOCATABLE     :: SD_MaxTorqueRate            ! Maximum torque rate for shutdown, [Nm/s]
    REAL(DbKi), DIMENSION(:), ALLOCATABLE     :: SD_MaxPitchRate             ! Maximum pitch rate used for shutdown, [rad/s]
    REAL(DbKi), DIMENSION(:), ALLOCATABLE     :: SD_StagePitch               ! Array containing the pitch angle to reach in each shutdown stage [rad]
    REAL(DbKi), DIMENSION(:), ALLOCATABLE     :: SD_StageTime                ! Array containing the time to spend in each shutdown stage [s]
    INTEGER(IntKi)                :: SD_Stage_N                  ! Number of shutdown stages (should equal number of values in SD_MaxPitchRate and SD_MaxTorqueRate) [-]
    INTEGER(IntKi)                :: Fl_Mode                     ! Floating specific feedback mode {0 - no nacelle velocity feedback, 1 - nacelle velocity feedback}
    INTEGER(IntKi)                :: Fl_n                        ! Number of Fl_Kp for gain scheduling
    REAL(DbKi), DIMENSION(:), ALLOCATABLE     :: Fl_Kp                       ! Nacelle velocity proportional feedback gain [s]
    REAL(DbKi), DIMENSION(:), ALLOCATABLE     :: Fl_U                        ! Wind speeds for scheduling Fl_Kp [m/s]
    INTEGER(IntKi)                :: Flp_Mode                    ! Flap actuator mode {0 - off, 1 - fixed flap position, 2 - PI flap control}
    REAL(DbKi)                    :: Flp_Angle                   ! Fixed flap angle (degrees)
    REAL(DbKi)                    :: Flp_Kp                      ! PI flap control proportional gain
    REAL(DbKi)                    :: Flp_Ki                      ! PI flap control integral gain
    REAL(DbKi)                    :: Flp_MaxPit                  ! Maximum (and minimum) flap pitch angle [rad]
    CHARACTER(1024)               :: OL_Filename                 ! Input file with open loop timeseries
    INTEGER(IntKi)                :: OL_Mode                     ! Open loop control mode {0 - no open loop control, 1 - open loop control vs. time, 2 - open loop control vs. wind speed}
    INTEGER(IntKi)                :: OL_BP_Mode                  ! Open loop control mode {0 - no open loop control, 1 - open loop control vs. time, 2 - open loop control vs. wind speed}
    REAL(DbKi)                    :: OL_BP_FiltFreq              ! First order low pass filter cutoff frequency for open loop breakpoint
    INTEGER(IntKi)                :: Ind_Breakpoint              ! The column in OL_Filename that contains the breakpoint (time if OL_Mode = 1)
    INTEGER(IntKi), DIMENSION(:), ALLOCATABLE     :: Ind_BldPitch                ! The columns in OL_Filename that contains the blade pitch inputs (1,2,3) in rad
    INTEGER(IntKi)                :: Ind_GenTq                   ! The column in OL_Filename that contains the generator torque in Nm
    INTEGER(IntKi)                :: Ind_YawRate                 ! The column in OL_Filename that contains the generator torque in Nm
    INTEGER(IntKi)                :: Ind_R_Speed                 ! The column in OL_Filename that contains the R_Speed input
    INTEGER(IntKi)                :: Ind_R_Torque                ! The column in OL_Filename that contains the R_Torque input
    INTEGER(IntKi)                :: Ind_R_Pitch                 ! The column in OL_Filename that contains the R_Pitch input
    INTEGER(IntKi)                :: Ind_Azimuth                 ! The column in OL_Filename that contains the desired azimuth position in rad (used if OL_Mode = 2)
    REAL(DbKi), DIMENSION(:), ALLOCATABLE     :: RP_Gains                    ! PID gains and Tf on derivative term for rotor position control (used if OL_Mode = 2)
    INTEGER(IntKi), DIMENSION(:), ALLOCATABLE     :: Ind_CableControl            ! The column in OL_Filename that contains the cable control inputs in m
    INTEGER(IntKi), DIMENSION(:), ALLOCATABLE     :: Ind_StructControl           ! The column in OL_Filename that contains the structural control inputs in various units
    REAL(DbKi), DIMENSION(:), ALLOCATABLE     :: OL_Breakpoints              ! Open loop breakpoints in timeseries
    REAL(DbKi), DIMENSION(:), ALLOCATABLE     :: OL_BldPitch1                ! Open loop blade pitch 1 timeseries
    REAL(DbKi), DIMENSION(:), ALLOCATABLE     :: OL_BldPitch2                ! Open loop blade pitch 2 timeseries
    REAL(DbKi), DIMENSION(:), ALLOCATABLE     :: OL_BldPitch3                ! Open loop blade pitch 3 timeseries
    REAL(DbKi), DIMENSION(:,:), ALLOCATABLE     :: OL_CableControl             ! None
    REAL(DbKi), DIMENSION(:,:), ALLOCATABLE     :: OL_StructControl            ! None
    REAL(DbKi), DIMENSION(:), ALLOCATABLE     :: OL_GenTq                    ! Open loop generator torque timeseries
    REAL(DbKi), DIMENSION(:), ALLOCATABLE     :: OL_YawRate                  ! Open loop yaw rate timeseries
    REAL(DbKi), DIMENSION(:), ALLOCATABLE     :: OL_Azimuth                  ! Open loop azimuth timeseries
    REAL(DbKi), DIMENSION(:), ALLOCATABLE     :: OL_R_Speed                  ! Open loop R_Speed timeseries
    REAL(DbKi), DIMENSION(:), ALLOCATABLE     :: OL_R_Torque                 ! Open loop R_Torque timeseries
    REAL(DbKi), DIMENSION(:), ALLOCATABLE     :: OL_R_Pitch                  ! Open loop R_Pitch timeseries
    REAL(DbKi), DIMENSION(:,:), ALLOCATABLE     :: OL_Channels                 ! Open loop channels in timeseries
    INTEGER(IntKi)                :: PA_Mode                     ! Pitch actuator mode {0 - not used, 1 - first order filter, 2 - second order filter}
    REAL(DbKi)                    :: PA_CornerFreq               ! Pitch actuator bandwidth/cut-off frequency [rad/s]
    REAL(DbKi)                    :: PA_Damping                  ! Pitch actuator damping ratio [-, unused if PA_Mode = 1]
    INTEGER(IntKi)                :: AWC_Mode                    ! Active wake control mode [0 - unused, 1 - complex number method, 2 - Coleman transform method]
    INTEGER(IntKi)                :: AWC_NumModes                ! AWC- Number of modes to include [-]
    INTEGER(IntKi), DIMENSION(:), ALLOCATABLE     :: AWC_n                       ! AWC azimuthal mode [-]
    INTEGER(IntKi), DIMENSION(:), ALLOCATABLE     :: AWC_harmonic                ! AWC Coleman transform harmonic [-]
    REAL(DbKi), DIMENSION(:), ALLOCATABLE     :: AWC_freq                    ! AWC frequency [Hz]
    REAL(DbKi), DIMENSION(:), ALLOCATABLE     :: AWC_amp                     ! AWC amplitude [deg]
    REAL(DbKi), DIMENSION(:), ALLOCATABLE     :: AWC_clockangle              ! AWC clocking angle [deg]
    REAL(DbKi)                    :: AWC_phaseoffset             ! AWC azimuth offset for Coleman transform [deg]
    REAL(DbKi), DIMENSION(:), ALLOCATABLE     :: AWC_CntrGains               ! AWC KP and KI/KR gain of the controller [-]
    INTEGER(IntKi)                :: PF_Mode                     ! Pitch actuator fault mode {0 - not used, 1 - offsets on one or more blades}
    REAL(DbKi), DIMENSION(:), ALLOCATABLE     :: PF_Offsets                  ! Pitch actuator fault offsets for blade 1-3 [rad/s]
    REAL(DbKi), DIMENSION(:), ALLOCATABLE     :: PF_TimeStuck                ! Time for pitch actuator fault to be stuck for blade 1-3 [s]
    INTEGER(IntKi)                :: Ext_Mode                    ! External control mode (0 - not used, 1 - call external control library)
    CHARACTER(1024)               :: DLL_FileName                ! File name of external dynamic library
    CHARACTER(1024)               :: DLL_InFile                  ! Name of input file called by dynamic library (DISCON.IN, e.g.)
    CHARACTER(1024)               :: DLL_ProcName                ! Process name of subprocess called in DLL_Filename (Usually DISCON)
    INTEGER(IntKi)                :: ZMQ_Mode                    ! Flag for ZeroMQ (0-off, 1-yaw}
    CHARACTER(256)                :: ZMQ_CommAddress             ! Comm Address to zeroMQ client
    REAL(DbKi)                    :: ZMQ_UpdatePeriod            ! Integer for zeromq update frequency
    INTEGER(IntKi)                :: CC_Mode                     ! Flag for ZeroMQ (0-off, 1-yaw}
    INTEGER(IntKi)                :: CC_Group_N                  ! Number of cable control groups
    REAL(DbKi)                    :: CC_ActTau                   ! Time constant for line actuator [s]
    INTEGER(IntKi), DIMENSION(:), ALLOCATABLE     :: CC_GroupIndex               ! Cable control group indices
    INTEGER(IntKi)                :: StC_Mode                    ! Flag for StC Control
    INTEGER(IntKi)                :: StC_Group_N                 ! Number of cable control groups
    INTEGER(IntKi), DIMENSION(:), ALLOCATABLE     :: StC_GroupIndex              ! Cable control group indices
    REAL(DbKi)                    :: PC_RtTq99                   ! 99% of the rated torque value, using for switching between pitch and torque control, [Nm].
    REAL(DbKi)                    :: VS_MaxOMTq                  ! Maximum torque at the end of the below-rated region 2, [Nm]
    REAL(DbKi)                    :: VS_MinOMTq                  ! Minimum torque at the beginning of the below-rated region 2, [Nm]
END TYPE ControlParameters

TYPE, BIND(C), PUBLIC :: WE
    REAL(DbKi)                    :: om_r                        ! Estimated rotor speed [rad/s]
    REAL(DbKi)                    :: v_t                         ! Estimated wind speed, turbulent component [m/s]
    REAL(DbKi)                    :: v_m                         ! Estimated wind speed, 10-minute averaged [m/s]
    REAL(DbKi)                    :: v_h                         ! Combined estimated wind speed [m/s]
    REAL(DbKi), DIMENSION(3,3)     :: P                           ! Covariance estiamte