!KGEN-generated Fortran source file 
  
!Generated at : 2026-03-25 23:30:47 
!KGEN version : 0.8.1 
  
! Copyright 2019 NREL
! Licensed under the Apache License, Version 2.0 (the "License"); you may not use
! this file except in compliance with the License. You may obtain a copy of the
! License at http://www.apache.org/licenses/LICENSE-2.0
! Unless required by applicable law or agreed to in writing, software distributed
! under the License is distributed on an "AS IS" BASIS, WITHOUT WARRANTIES OR
! CONDITIONS OF ANY KIND, either express or implied. See the License for the
! specific language governing permissions and limitations under the License.
! -------------------------------------------------------------------------------------------
! This module contains basic control-related functions
! Functions:
!       AeroDynTorque: Calculate aerodynamic torque
!       ColemanTransform: Perform Colemant transform
!       ColemanTransformInverse: Perform inverse Colemant transform
!       CPFunction: Find Cp using parameterized surface
!       Debug: Debug the controller
!       DFController: DF control
!       identity: Make identity matrix
!       interp1d: 1-d interpolation
!       interp2d: 2-d interpolation
!       matinv3: 3x3 matrix inverse
!       PIDController: implement a PID controller
!       ratelimit: Rate limit signal
!       saturate: Saturate signal


MODULE Functions

    USE constants 
    USE kgen_utils_mod, ONLY: kgen_dp, kgen_array_sumcheck 
    USE tprof_mod, ONLY: tstart, tstop, tnull, tprnt 

    IMPLICIT NONE 

CONTAINS
!-------------------------------------------------------------------------------------------------------------------------------

!-------------------------------------------------------------------------------------------------------------------------------
    


!-------------------------------------------------------------------------------------------------------------------------------


!-------------------------------------------------------------------------------------------------------------------------------


!-------------------------------------------------------------------------------------------------------------------------------


!-------------------------------------------------------------------------------------------------------------------------------

    SUBROUTINE ColemanTransform(rootMOOP, aziAngle, nHarmonic, axTOut, axYOut)
    ! The Coleman or d-q axis transformation transforms the root out of plane bending moments of each turbine blade
    ! to a direct axis and a quadrature axis

        IMPLICIT NONE
        ! Inputs
        REAL(DbKi), INTENT(IN)     :: rootMOOP(3)                      ! Root out of plane bending moments of each blade
        REAL(DbKi), INTENT(IN)     :: aziAngle                         ! Rotor azimuth angle
        INTEGER(IntKi), INTENT(IN)  :: nHarmonic                        ! The harmonic number, nP
        ! Outputs
        REAL(DbKi), INTENT(OUT)    :: axTOut, axYOut               ! Direct axis and quadrature axis outputted by this transform
        ! Local
        REAL(DbKi), PARAMETER      :: phi2 = 2.0/3.0*PI                ! Phase difference from first to second blade
        REAL(DbKi), PARAMETER      :: phi3 = 4.0/3.0*PI                ! Phase difference from first to third blade
        ! Body

        axTOut  = 2.0/3.0 * (cos(nHarmonic*(aziAngle))*rootMOOP(1) + cos(nHarmonic*(aziAngle+phi2))*rootMOOP(2) + cos(nHarmonic*(aziAngle+phi3))*rootMOOP(3))
        axYOut  = 2.0/3.0 * (sin(nHarmonic*(aziAngle))*rootMOOP(1) + sin(nHarmonic*(aziAngle+phi2))*rootMOOP(2) + sin(nHarmonic*(aziAngle+phi3))*rootMOOP(3))
        
    END SUBROUTINE ColemanTransform
!-------------------------------------------------------------------------------------------------------------------------------


!-------------------------------------------------------------------------------------------------------------------------------


!-------------------------------------------------------------------------------------------------------------------------------


!-------------------------------------------------------------------------------------------------------------------------------

!-------------------------------------------------------------------------------------------------------------------------------

!-------------------------------------------------------------------------------------------------------------------------------


!-------------------------------------------------------------------------------------------------------------------------------


!-------------------------------------------------------------------------------------------------------------------------------


END MODULE Functions