!KGEN-generated Fortran source file 
  
!Generated at : 2026-03-25 23:30:27 
!KGEN version : 0.8.1 
  
! Copyright 2019 NREL
! Licensed under the Apache License, Version 2.0 (the "License"); you may not use
! this file except in compliance with the License. You may obtain a copy of the
! License at http://www.apache.org/licenses/LICENSE-2.0
! Unless required by applicable law or agreed to in writing, software distributed
! under the License is distributed on an "AS IS" BASIS, WITHOUT WARRANTIES OR
! CONDITIONS OF ANY KIND, either express or implied. See the License for the
! specific language governing permissions and limitations under the License.
! -------------------------------------------------------------------------------------------
! This module contains basic control-related functions
! Functions:
!       AeroDynTorque: Calculate aerodynamic torque
!       ColemanTransform: Perform Colemant transform
!       ColemanTransformInverse: Perform inverse Colemant transform
!       CPFunction: Find Cp using parameterized surface
!       Debug: Debug the controller
!       DFController: DF control
!       identity: Make identity matrix
!       interp1d: 1-d interpolation
!       interp2d: 2-d interpolation
!       matinv3: 3x3 matrix inverse
!       PIDController: implement a PID controller
!       ratelimit: Rate limit signal
!       saturate: Saturate signal


MODULE Functions

    USE constants 
    USE kgen_utils_mod, ONLY: kgen_dp, kgen_array_sumcheck 
    USE tprof_mod, ONLY: tstart, tstop, tnull, tprnt 

    IMPLICIT NONE 

CONTAINS
!-------------------------------------------------------------------------------------------------------------------------------
    REAL(DbKi) FUNCTION saturate(inputValue, minValue, maxValue)
    ! Saturates inputValue. Makes sure it is not smaller than minValue and not larger than maxValue

        IMPLICIT NONE

        REAL(DbKi), INTENT(IN)     :: inputValue
        REAL(DbKi), INTENT(IN)     :: minValue
        REAL(DbKi), INTENT(IN)     :: maxValue

        saturate = REAL(MIN(MAX(inputValue,minValue), maxValue),DbKi)

    END FUNCTION saturate
!-------------------------------------------------------------------------------------------------------------------------------
    
    REAL(DbKi) FUNCTION ratelimit(inputSignal, minRate, maxRate, DT, reset, rlP, inst, ResetValue)
    ! Saturates inputValue. Makes sure it is not smaller than minValue and not larger than maxValue
        USE rosco_types, ONLY: rlparams 
        USE rosco_types, ONLY: kr_rosco_types_rlparams 
        USE rosco_types, ONLY: kv_rosco_types_rlparams 

        
        IMPLICIT NONE

        REAL(DbKi), INTENT(IN)          :: inputSignal
        REAL(DbKi), INTENT(IN)          :: minRate
        REAL(DbKi), INTENT(IN)          :: maxRate
        REAL(DbKi), INTENT(IN)          :: DT
        LOGICAL,    INTENT(IN)         :: reset  
        TYPE(rlParams), INTENT(INOUT)   :: rlP
        INTEGER(IntKi), INTENT(INOUT)   :: inst
        REAL(DbKi), OPTIONAL,  INTENT(IN)          :: ResetValue           ! Value to base rate limit off if restarting
        ! Local variables

        REAL(DbKi)                 :: rate
        REAL(DbKi)                 :: ResetValue_

        ResetValue_ = inputSignal
        IF (PRESENT(ResetValue)) ResetValue_ = ResetValue   

        IF (reset) THEN
            rlP%LastSignal(inst) = ResetValue_
            ratelimit = ResetValue_
            
        ELSE
            rate = (inputSignal - rlP%LastSignal(inst))/DT                       ! Signal rate (unsaturated)
            rate = saturate(rate, minRate, maxRate)                 ! Saturate the signal rate

            ratelimit = rlP%LastSignal(inst) + rate*DT  

            rlP%LastSignal(inst) = ratelimit

        ENDIF
        ! Increment instance

        inst = inst + 1                     ! Saturate the overall command using the rate limit

    END FUNCTION ratelimit


!-------------------------------------------------------------------------------------------------------------------------------


!-------------------------------------------------------------------------------------------------------------------------------


!-------------------------------------------------------------------------------------------------------------------------------


!-------------------------------------------------------------------------------------------------------------------------------


!-------------------------------------------------------------------------------------------------------------------------------


!-------------------------------------------------------------------------------------------------------------------------------


!-------------------------------------------------------------------------------------------------------------------------------


!-------------------------------------------------------------------------------------------------------------------------------

!-------------------------------------------------------------------------------------------------------------------------------

!-------------------------------------------------------------------------------------------------------------------------------


!-------------------------------------------------------------------------------------------------------------------------------


!-------------------------------------------------------------------------------------------------------------------------------


END MODULE Functions