!KGEN-generated Fortran source file 
  
!Generated at : 2026-03-18 21:32:35 
!KGEN version : 0.8.1 
  
! Copyright 2019 NREL
! Licensed under the Apache License, Version 2.0 (the "License"); you may not use
! this file except in compliance with the License. You may obtain a copy of the
! License at http://www.apache.org/licenses/LICENSE-2.0
! Unless required by applicable law or agreed to in writing, software distributed
! under the License is distributed on an "AS IS" BASIS, WITHOUT WARRANTIES OR
! CONDITIONS OF ANY KIND, either express or implied. See the License for the
! specific language governing permissions and limitations under the License.
! -------------------------------------------------------------------------------------------
! This module contains basic control-related functions
! Functions:
!       AeroDynTorque: Calculate aerodynamic torque
!       ColemanTransform: Perform Colemant transform
!       ColemanTransformInverse: Perform inverse Colemant transform
!       CPFunction: Find Cp using parameterized surface
!       Debug: Debug the controller
!       DFController: DF control
!       identity: Make identity matrix
!       interp1d: 1-d interpolation
!       interp2d: 2-d interpolation
!       matinv3: 3x3 matrix inverse
!       PIDController: implement a PID controller
!       ratelimit: Rate limit signal
!       saturate: Saturate signal


MODULE Functions

    USE constants 
    USE kgen_utils_mod
    USE tprof_mod, ONLY: tstart, tstop, tnull, tprnt 

    IMPLICIT NONE 

!-------------------------------------------------------------------------------------------------------------------------------

!-------------------------------------------------------------------------------------------------------------------------------
    


!-------------------------------------------------------------------------------------------------------------------------------


!-------------------------------------------------------------------------------------------------------------------------------


!-------------------------------------------------------------------------------------------------------------------------------


!-------------------------------------------------------------------------------------------------------------------------------


!-------------------------------------------------------------------------------------------------------------------------------


!-------------------------------------------------------------------------------------------------------------------------------


!-------------------------------------------------------------------------------------------------------------------------------


!-------------------------------------------------------------------------------------------------------------------------------

!-------------------------------------------------------------------------------------------------------------------------------

!-------------------------------------------------------------------------------------------------------------------------------


!-------------------------------------------------------------------------------------------------------------------------------


!-------------------------------------------------------------------------------------------------------------------------------


END MODULE Functions